$# LS-DYNA Keyword file created by LS-PrePost(R) V4.6.15 - 16Aug2019
$# Created on Sep-04-2020 (09:11:12)
*KEYWORD
*TITLE
$#                                                                         title
LS-DYNA keyword deck by LS-PrePost
*DATABASE_CROSS_SECTION_PLANE_ID
$#    csid                                                                 title
         2                                                                      
$#    psid       xct       yct       zct       xch       ych       zch    radius
         0       0.0      95.0      10.0       0.0      96.0      10.0       0.0
$#    xhev      yhev      zhev      lenl      lenm        id     itype     
     100.0      95.0      10.0     100.0      10.0         0         0
*BOUNDARY_PRESCRIBED_MOTION_SET_ID
$#      id                                                               heading
         1BC_uy
$#    nsid       dof       vad      lcid        sf       vid     death     birth
         1         2         2         1       1.0         01.00000E28       0.0
*BOUNDARY_SPC_SET_ID
$#      id                                                               heading
         1BC_y0
$#    nsid       cid      dofx      dofy      dofz     dofrx     dofry     dofrz
         2         0         0         1         0         0         0         0
*SET_NODE_LIST_TITLE
NS_y-
$#     sid       da1       da2       da3       da4    solver      
         2       0.0       0.0       0.0       0.0MECH
$#    nid1      nid2      nid3      nid4      nid5      nid6      nid7      nid8
         2         3         5         8        26        27        45        46
        47        48        49        50        51        52        53       101
       102       103       104       105       106       107       108       109
       110       111       556       557       558       559       560       561
       562       563       564       565       566       567       568       569
       570       571       572       573         0         0         0         0
*BOUNDARY_SPC_SET_ID
$#      id                                                               heading
         2BC_x0
$#    nsid       cid      dofx      dofy      dofz     dofrx     dofry     dofrz
         3         0         1         0         0         0         0         0
*SET_NODE_LIST_TITLE
NS_x-
$#     sid       da1       da2       da3       da4    solver      
         3       0.0       0.0       0.0       0.0MECH
$#    nid1      nid2      nid3      nid4      nid5      nid6      nid7      nid8
         1         4         7        10        43        44        92        93
        94        95        96        97        98        99       100       133
       134       154       155       156       157       158       159       160
       161       162       201       202       203       204       205       206
       207       208       209       210       211       212       213       214
       215       216       217       218         0         0         0         0
*BOUNDARY_SPC_SET_ID
$#      id                                                               heading
         3BC_z0
$#    nsid       cid      dofx      dofy      dofz     dofrx     dofry     dofrz
         4         0         0         0         1         0         0         0
*SET_NODE_LIST_TITLE
NS_z-
$#     sid       da1       da2       da3       da4    solver      
         4       0.0       0.0       0.0       0.0MECH
$#    nid1      nid2      nid3      nid4      nid5      nid6      nid7      nid8
         3         4         8         9        10        28        29        30
        31        32        33        34        35        36        37        38
        39        40        41        42       103       104       105       106
       107       108       109       110       111       114       115       116
       117       118       119       120       121       122       123       124
       125       126       127       128       129       130       131       132
       135       136       137       138       139       140       141       142
       143       144       145       146       147       148       149       150
       151       152       153       154       155       156       157       158
       159       160       161       162       287       288       289       290
       291       292       293       294       295       296       297       298
       299       300       301       302       303       304       305       306
       307       308       309       310       311       312       313       314
       315       316       317       318       319       320       321       322
       323       324       325       326       327       328       329       330
       331       332       333       334       335       336       337       338
       339       340       341       342       343       344       345       346
       347       348       349       350       351       352       353       354
       355       356       357       358       359       360       361       362
       363       364       365       366       367       368       369       370
$ ... 24 like lines cut
*SECTION_SOLID_TITLE
cube
$#   secid    elform       aet   
         1         1         0
*MAT_PIECEWISE_LINEAR_PLASTICITY_TITLE
MAT_dummy
$#     mid        ro         e        pr      sigy      etan      fail      tdel
        997.83000E-6     207.0       0.3       1.0      50.01.00000E21       0.0
$#       c         p      lcss      lcsr        vp  
       0.0       0.0         0         0       0.0
$#    eps1      eps2      eps3      eps4      eps5      eps6      eps7      eps8
       0.0       0.0       0.0       0.0       0.0       0.0       0.0       0.0
$#     es1       es2       es3       es4       es5       es6       es7       es8
       0.0       0.0       0.0       0.0       0.0       0.0       0.0       0.0
*DEFINE_CURVE_TITLE
Curve_uy
$#    lcid      sidr       sfa       sfo      offa      offo    dattyp     lcint
         1         0       1.0       1.0       0.0       0.0         0         0
$#                a1                  o1  
                 0.0                 0.0
               100.0                 3.0
*ELEMENT_SOLID
$#   eid     pid      n1      n2      n3      n4      n5      n6      n7      n8
       1       1       1      92     574      11      44     201     851     219
       2       1      44     201     851     219      43     202     852     220
       3       1      43     202     852     220       4     154     291      28
       4       1      11     574     575      12     219     851     853     221
       5       1     219     851     853     221     220     852     854     222
       6       1     220     852     854     222      28     291     292      29
       7       1      25     576      45       2     247     855     556      26
       8       1     247     855     556      26     248     856     557      27
       9       1     248     856     557      27      42     293     103       3
      10       1      24     577     576      25     245     857     855     247
      11       1     245     857     855     247     246     858     856     248
      12       1     246     858     856     248      41     294     293      42
      13       1      12     575     578      13     221     853     859     223
      14       1     221     853     859     223     222     854     860     224
      15       1     222     854     860     224      29     292     295      30
      16       1      13     578     579      14     223     859     861     225
      17       1     223     859     861     225     224     860     862     226
      18       1     224     860     862     226      30     295     296      31
      19       1      23     580     577      24     243     863     857     245
      20       1     243     863     857     245     244     864     858     246
$ ... 898 like lines cut
*NODE
$#   nid               x               y               z      tc      rc  
       1   -4.090838e-15            50.0            10.0       0       0
       2            50.0    3.061617e-15            10.0       0       0
       3            50.0    3.061617e-15             0.0       0       0
       4   -5.335588e-15            50.0             0.0       0       0
       5           100.0             0.0            10.0       0       0
       6           100.0           100.0            10.0       0       0
       7             0.0           100.0            10.0       0       0
       8           100.0             0.0             0.0       0       0
       9           100.0           100.0             0.0       0       0
      10             0.0           100.0             0.0       0       0
      11        4.900857        49.75924            10.0       0       0
      12        9.754516        49.03926            10.0       0       0
      13        14.51423        47.84702            10.0       0       0
      14        19.13417        46.19398            10.0       0       0
      15        23.56984        44.09606            10.0       0       0
      16        27.77851        41.57348            10.0       0       0
      17        31.71966        38.65052            10.0       0       0
      18        35.35534        35.35534            10.0       0       0
      19        38.65052        31.71966            10.0       0       0
      20        41.57348        27.77851            10.0       0       0
$ ... 1360 like lines cut
*SET_NODE_LIST_TITLE
NS_y+
$#     sid       da1       da2       da3       da4    solver      
         1       0.0       0.0       0.0       0.0MECH
$#    nid1      nid2      nid3      nid4      nid5      nid6      nid7      nid8
         6         7         9        10        73        74        75        76
        77        78        79        80        81        82        83        84
        85        86        87        88        89        90        91       112
       113       133       134       135       136       137       138       139
       140       141       142       143       144       145       146       147
       148       149       150       151       152       153       249       250
       251       252       253       254       255       256       257       258
       259       260       261       262       263       264       265       266
       267       268       269       270       271       272       273       274
       275       276       277       278       279       280       281       282
       283       284       285       286         0         0         0         0
*END
