$# LS-DYNA Keyword file created by LS-PrePost(R) V4.6.15 - 16Aug2019
$# Created on Jun-08-2020 (19:25:30)
*KEYWORD
*TITLE
$#                                                                         title
LS-DYNA keyword deck by LS-PrePost
*BOUNDARY_PRESCRIBED_MOTION_SET_ID
$#      id                                                               heading
         1BC_uy
$#    nsid       dof       vad      lcid        sf       vid     death     birth
         1         2         2         1       1.0         01.00000E28       0.0
*BOUNDARY_SPC_SET_ID
$#      id                                                               heading
         1BC_y0
$#    nsid       cid      dofx      dofy      dofz     dofrx     dofry     dofrz
         2         0         0         1         0         0         0         0
*SET_NODE_LIST_TITLE
NS_y-
$#     sid       da1       da2       da3       da4    solver      
         2       0.0       0.0       0.0       0.0MECH
$#    nid1      nid2      nid3      nid4      nid5      nid6      nid7      nid8
         1         2         5         6        11        12        13        69
        70        71        72        73        74        75        76        77
        78        79        80        81        82        83        84        85
        86        87        88        89        90        91        92        93
        94        95        96        97        98        99       100       101
       102       103      2210      2211      2212      2213      2214      2215
      2216      2217      2218      2219      2220      2221      2222      2223
      2224      2225      2226      2227      2228      2229      2230      2231
      2232      2233      2234      2235      2236      2237      2238      2239
      2240      2241      2242      2243      2244      2245      2246      2247
      2248      2249      2250      2251      2252      2253      2254      2255
      2256      2257         0         0         0         0         0         0
*BOUNDARY_SPC_SET_ID
$#      id                                                               heading
         2BC_x0
$#    nsid       cid      dofx      dofy      dofz     dofrx     dofry     dofrz
         3         0         1         0         0         0         0         0
*SET_NODE_LIST_TITLE
NS_x-
$#     sid       da1       da2       da3       da4    solver      
         3       0.0       0.0       0.0       0.0MECH
$#    nid1      nid2      nid3      nid4      nid5      nid6      nid7      nid8
         3         4         9        10        14        15        16       173
       174       175       242       243       244       245       246       247
       248       249       250       251       252       253       254       255
       256       257       258       259       260       261       262       263
       264       265       266       267       268       269       270       271
       272       273      1257      1258      1259      1260      1261      1262
      1263      1264      1265      1266      1267      1268      1269      1270
      1271      1272      1273      1274      1275      1276      1277      1278
      1279      1280      1281      1282      1283      1284      1285      1286
      1287      1288      1289      1290      1291      1292      1293      1294
      1295      1296      1297      1298      1299      1300      1301      1302
      1303      1304         0         0         0         0         0         0
*BOUNDARY_SPC_SET_ID
$#      id                                                               heading
         3BC_z0
$#    nsid       cid      dofx      dofy      dofz     dofrx     dofry     dofrz
         4         0         0         0         1         0         0         0
*SET_NODE_LIST_TITLE
NS_z-
$#     sid       da1       da2       da3       da4    solver      
         4       0.0       0.0       0.0       0.0MECH
$#    nid1      nid2      nid3      nid4      nid5      nid6      nid7      nid8
         1         3         5         7         9        17        18        19
        20        21        22        23        24        25        26        27
        28        29        30        31        32        33        34        35
        36        37        38        39        40        41        42        72
        73        74        75        76        77        78        79        80
        81        82        83        84        85        86        87       107
       108       109       110       111       112       113       114       115
       116       117       118       119       120       121       122       123
       124       125       126       127       128       129       130       131
       132       133       134       135       136       137       138       139
       176       177       178       179       180       181       182       183
       184       185       186       187       188       189       190       191
       192       193       194       195       196       197       198       199
       200       201       202       203       204       205       206       207
       208       242       243       244       245       246       247       248
       249       250       251       252       253       254       255       256
       257       373       374       375       376       377       378       379
       380       381       382       383       384       385       386       387
       388       389       390       391       392       393       394       395
       396       397       398       399       400       401       402       403
$ ... 97 like lines cut
*SECTION_SOLID_TITLE
qplate
$#   secid    elform       aet   
         1         1         0
*MAT_PIECEWISE_LINEAR_PLASTICITY_TITLE
MAT_dummy
$#     mid        ro         e        pr      sigy      etan      fail      tdel
        997.83000E-6     207.0       0.3       1.0      50.01.00000E21       0.0
$#       c         p      lcss      lcsr        vp  
       0.0       0.0         0         0       0.0
$#    eps1      eps2      eps3      eps4      eps5      eps6      eps7      eps8
       0.0       0.0       0.0       0.0       0.0       0.0       0.0       0.0
$#     es1       es2       es3       es4       es5       es6       es7       es8
       0.0       0.0       0.0       0.0       0.0       0.0       0.0       0.0
*DEFINE_CURVE_TITLE
Curve_uy
$#    lcid      sidr       sfa       sfo      offa      offo    dattyp     lcint
         1         0       1.0       1.0       0.0       0.0         0         0
$#                a1                  o1  
                 0.0                 0.0
               100.0                 1.0
*ELEMENT_SOLID
$#   eid     pid      n1      n2      n3      n4      n5      n6      n7      n8
   11539       1    1864    1863    2603    2492    1788    1788    3893    3893
   11540       1    2492    2603    2604    2493    3893    3893    3894    3894
   11541       1    2493    2604    2605    2494    3894    3894    3895    3895
   11542       1    2494    2605     488     451    3895    3895     918     918
   11543       1    1931    1989    2267    2708    1988    1988    2381    2381
   11544       1    2708    2267    2268    2709    2381    2381    2382    2382
   11545       1    2709    2268    2269    2710    2382    2382    2383    2383
   11546       1    2710    2269     376     523    2383    2383     414     414
   11547       1    1979    1945    2714    2306    2003    2003    2408    2408
   11548       1    2306    2714    2715    2307    2408    2408    2409    2409
   11549       1    2307    2715    2716    2308    2409    2409    2410    2410
   11550       1    2308    2716     525     389    2410    2410     423     423
   11551       1    2041    2038    2330    4547    2010    2010    2417    2417
   11552       1    4547    2330    2331    4548    2417    2417    2418    2418
   11553       1    4548    2331    2332    4549    2418    2418    2419    2419
   11554       1    4549    2332     397    1136    2419    2419     426     426
   11555       1    2045    2047    4523    4550    1994    1994    2339    2339
   11556       1    4550    4523    4524    4551    2339    2339    2340    2340
   11557       1    4551    4524    4525    4552    2340    2340    2341    2341
   11558       1    4552    4525    1128    1137    2341    2341     400     400
$ ... 3476 like lines cut
*NODE
$#   nid               x               y               z      tc      rc  
       1            50.0             0.0             0.0       0       0
       2            50.0             0.0            10.0       0       0
       3   -4.785668e-15            50.0             0.0       0       0
       4   -4.785668e-15            50.0            10.0       0       0
       5           100.0             0.0             0.0       0       0
       6           100.0             0.0            10.0       0       0
       7           100.0           100.0             0.0       0       0
       8           100.0           100.0            10.0       0       0
       9             0.0           100.0             0.0       0       0
      10             0.0           100.0            10.0       0       0
      11            50.0             0.0             2.5       0       0
      12            50.0             0.0             5.0       0       0
      13            50.0             0.0             7.5       0       0
      14   -4.785668e-15            50.0             2.5       0       0
      15   -4.785668e-15            50.0             5.0       0       0
      16   -4.785668e-15            50.0             7.5       0       0
      17        49.91541        2.907241             0.0       0       0
      18        49.66192        5.804646             0.0       0       0
      19        49.24039        8.682409             0.0       0       0
      20        48.65224        11.53079             0.0       0       0
$ ... 4655 like lines cut
*SET_NODE_LIST_TITLE
NS_y+
$#     sid       da1       da2       da3       da4    solver      
         1       0.0       0.0       0.0       0.0MECH
$#    nid1      nid2      nid3      nid4      nid5      nid6      nid7      nid8
         7         8         9        10       104       105       106       173
       174       175       176       177       178       179       180       181
       182       183       184       185       186       187       188       189
       190       191       192       193       194       195       196       197
       198       199       200       201       202       203       204       205
       206       207       208       209       210       211       212       213
       214       215       216       217       218       219       220       221
       222       223       224       225       226       227       228       229
       230       231       232       233       234       235       236       237
       238       239       240       241      2111      2112      2113      2114
      2115      2116      2117      2118      2119      2120      2121      2122
      2123      2124      2125      2126      2127      2128      2129      2130
      2131      2132      2133      2134      2135      2136      2137      2138
      2139      2140      2141      2142      2143      2144      2145      2146
      2147      2148      2149      2150      2151      2152      2153      2154
      2155      2156      2157      2158      2159      2160      2161      2162
      2163      2164      2165      2166      2167      2168      2169      2170
      2171      2172      2173      2174      2175      2176      2177      2178
      2179      2180      2181      2182      2183      2184      2185      2186
      2187      2188      2189      2190      2191      2192      2193      2194
      2195      2196      2197      2198      2199      2200      2201      2202
      2203      2204      2205      2206      2207      2208      2209         0
*END
