$# LS-DYNA Keyword file created by LS-PrePost(R) V4.6.15 - 16Aug2019
$# Created on Jun-04-2020 (09:32:14)
*KEYWORD
*TITLE
$#                                                                         title
LS-DYNA keyword deck by LS-PrePost
*BOUNDARY_PRESCRIBED_MOTION_SET_ID
$#      id                                                               heading
         1BC_uy
$#    nsid       dof       vad      lcid        sf       vid     death     birth
         1         2         2         1       1.0         01.00000E28       0.0
*BOUNDARY_SPC_SET_ID
$#      id                                                               heading
         1BC_y0
$#    nsid       cid      dofx      dofy      dofz     dofrx     dofry     dofrz
         2         0         0         1         0         0         0         0
*SET_NODE_LIST_TITLE
NS_y-
$#     sid       da1       da2       da3       da4    solver      
         2       0.0       0.0       0.0       0.0MECH
$#    nid1      nid2      nid3      nid4      nid5      nid6      nid7      nid8
        60       114       115       116       117       118       119       120
       121       122       123       124       125       126         0         0
*PART
$#                                                                         title
LSHELL1
$#     pid     secid       mid     eosid      hgid      grav    adpopt      tmid
         1         1         4         0         0         0         0         0
*SECTION_SHELL_TITLE
rod
$#   secid    elform      shrf       nip     propt   qr/irid     icomp     setyp
         1        15       1.0         2       3.0         0         0         1
$#      t1        t2        t3        t4      nloc     marea      idof    edgset
       0.1       0.1       0.1       0.1       1.0       0.0       0.0         0
*MAT_PIECEWISE_LINEAR_PLASTICITY_TITLE
MAT_dummy
$#     mid        ro         e        pr      sigy      etan      fail      tdel
        997.83000E-6     207.0       0.3       1.0      50.01.00000E21       0.0
$#       c         p      lcss      lcsr        vp  
       0.0       0.0         0         0       0.0
$#    eps1      eps2      eps3      eps4      eps5      eps6      eps7      eps8
       0.0       0.0       0.0       0.0       0.0       0.0       0.0       0.0
$#     es1       es2       es3       es4       es5       es6       es7       es8
       0.0       0.0       0.0       0.0       0.0       0.0       0.0       0.0
*DEFINE_CURVE_TITLE
Curve_uy
$#    lcid      sidr       sfa       sfo      offa      offo    dattyp     lcint
         1         0       1.0       1.0       0.0       0.0         0         0
$#                a1                  o1  
                 0.0                 0.0
               400.0                 7.0
               500.0                 0.0
*ELEMENT_SHELL
$#   eid     pid      n1      n2      n3      n4      n5      n6      n7      n8
       1       1      60     115     135      61       0       0       0       0
       2       1     126     114     127     136       0       0       0       0
       3       1     125     126     136     137       0       0       0       0
       4       1     124     125     137     138       0       0       0       0
       5       1     123     124     138     139       0       0       0       0
       6       1     122     123     139     140       0       0       0       0
       7       1     121     122     140     141       0       0       0       0
       8       1     120     121     141     142       0       0       0       0
       9       1     119     120     142     143       0       0       0       0
      10       1     118     119     143     144       0       0       0       0
      11       1     117     118     144     145       0       0       0       0
      12       1     116     117     145     146       0       0       0       0
      13       1     115     116     146     135       0       0       0       0
      14       1       3       1      48     147       0       0       0       0
      15       1       4       3     147     148       0       0       0       0
      16       1       5       4     148     149       0       0       0       0
      17       1       6       5     149     150       0       0       0       0
      18       1       7       6     150     151       0       0       0       0
      19       1       8       7     151     152       0       0       0       0
      20       1       9       8     152     153       0       0       0       0
$ ... 682 like lines cut
*NODE
$#   nid               x               y               z      tc      rc  
       1          6.4135           26.67             0.0       0       0
       2          6.4135            4.49             0.0       0       0
       3          6.4135        26.17711             0.0       0       0
       4          6.4135        25.68422             0.0       0       0
       5          6.4135        25.19133             0.0       0       0
       6          6.4135        24.69844             0.0       0       0
       7          6.4135        24.20555             0.0       0       0
       8          6.4135        23.71267             0.0       0       0
       9          6.4135        23.21978             0.0       0       0
      10          6.4135        22.72689             0.0       0       0
      11          6.4135          22.234             0.0       0       0
      12          6.4135        21.74111             0.0       0       0
      13          6.4135        21.24822             0.0       0       0
      14          6.4135        20.75533             0.0       0       0
      15          6.4135        20.26244             0.0       0       0
      16          6.4135        19.76956             0.0       0       0
      17          6.4135        19.27667             0.0       0       0
      18          6.4135        18.78378             0.0       0       0
      19          6.4135        18.29089             0.0       0       0
      20          6.4135          17.798             0.0       0       0
$ ... 750 like lines cut
*SET_NODE_LIST_TITLE
NS_y+
$#     sid       da1       da2       da3       da4    solver      
         1       0.0       0.0       0.0       0.0MECH
$#    nid1      nid2      nid3      nid4      nid5      nid6      nid7      nid8
         1        47        48        49        50        51        52        53
        54        55        56        57        58        59         0         0
*END
