$# LS-DYNA Keyword file created by LS-PrePost(R) V4.6.15 - 16Aug2019
$# Created on May-22-2020 (19:03:51)
*KEYWORD
*TITLE
$#                                                                         title
LS-DYNA keyword deck by LS-PrePost
*CONTROL_ACCURACY
$make the plastic material model always iterate to increase accuracy in implicit
$#     osu       inn    pidosu      iacc    
         0         1         0         1
*CONTROL_IMPLICIT_GENERAL
$#  imflag       dt0    imform      nsbs       igs     cnstn      form    zero_v
         1       1.0         2         1         2         0         0         0
*CONTROL_TERMINATION
$#  endtim    endcyc     dtmin    endeng    endmas     nosol     
      50.0         0       0.0       0.01.000000E8         0
*DATABASE_BINARY_D3PLOT
$#      dt      lcdt      beam     npltc    psetid      
       1.0         0         0         0         0
$#   ioopt     
         0
*BOUNDARY_PRESCRIBED_MOTION_SET_ID
$#      id                                                               heading
         1BC_uy
$#    nsid       dof       vad      lcid        sf       vid     death     birth
         2         2         2         1       1.0         01.00000E28       0.0
*BOUNDARY_SPC_SET_ID
$#      id                                                               heading
         1BC_y0
$#    nsid       cid      dofx      dofy      dofz     dofrx     dofry     dofrz
         1         0         0         1         0         0         0         0
*SET_NODE_LIST_TITLE
NS_y-
$#     sid       da1       da2       da3       da4    solver      
         1       0.0       0.0       0.0       0.0MECH
$#    nid1      nid2      nid3      nid4      nid5      nid6      nid7      nid8
        60       114       115       116       117       118       119       120
       121       122       123       124       125       126       776       777
       778       782       783       784       785       786       787       788
       789       790       791       792       793       794       795       796
       797       798       799       800       801       802       803       804
       805       806       807       808       809       810       811       812
       813       814       815       816       817       818       819       820
       821       822       823      1034      1035      1036      1037      1038
      1039      1040      1041      1042      1043      1044      1045      1046
      1047      1048      1049      1050      1051      1052      1053      1054
      1055      1056      1057      1058      1059      1060      1061      1062
      1063      1064      1065      1066      1067      1068      1069      1070
      1071      1072      1073      1074      1075      1076      1077      1078
      1079      1080      1081      1082      1083      1084      1085      1086
      1087      1088      1089      1090      1091      1092      1093      1094
      1095      1096      1097      1098      1099      1100      1101      1102
      1103      1104      1105      1106      1107      1108      1109      1110
      1111      1112      1113      1114      1115      1116      1117      1118
      1119      1120      1121      1122      1123      1124      1125      1126
      1127      1128      1129      1130      1131      1132      1133      1134
$ ... 18 like lines cut
*BOUNDARY_SPC_SET_ID
$#      id                                                               heading
         2BC_x0
$#    nsid       cid      dofx      dofy      dofz     dofrx     dofry     dofrz
         3         0         1         0         0         0         0         0
*SET_NODE_LIST_TITLE
NS_x-
$#     sid       da1       da2       da3       da4    solver      
         3       0.0       0.0       0.0       0.0MECH
$#    nid1      nid2      nid3      nid4      nid5      nid6      nid7      nid8
        47       777       778       780       781       812       813       814
       815       816       817       818       819       820       821       822
       823       832       833       834       835       836       837       838
       839       858       859       860       861       862       863       864
       865       878       879       880       881       882       883       884
       885       886       887       888       889      1129      1234      1235
      1236      1237      1238      1239      1240      1241      1242      1243
      1244      1245      1246      1247      1248      1249      1250      1251
      1252      1253      1254      1255      1256      1257      1258      1259
      1260      1261      1262      1263      1264      1265      1266      1267
      1268      1269      1270      1271      1272      1273      1274      1275
      1276      1277      1278      1279      1280      1281      1282      1283
      1284      1285      1286      1287      1288      1289      1290      1291
      1292      1293      1294      1295      1296      1297      1298      1299
      1300      1301      1302      1303      1304      1305      1306      1307
      1308      1309      1310      1311      1312      1313      1314      1315
      1316      1317      1318      1319      1320      1321      1322      1323
      1324      1325      1326      1327      1328      1329      1334      2194
      2195      2196      2197      2198      2199      2200      2201      2267
      2268      2302      2303      2304      2305      2306      2307      2308
$ ... 94 like lines cut
*BOUNDARY_SPC_SET_ID
$#      id                                                               heading
         2BC_z0
$#    nsid       cid      dofx      dofy      dofz     dofrx     dofry     dofrz
         4         0         0         0         1         0         0         0
*SET_NODE_LIST_TITLE
NS_z-
$#     sid       da1       da2       da3       da4    solver      
         4       0.0       0.0       0.0       0.0MECH
$#    nid1      nid2      nid3      nid4      nid5      nid6      nid7      nid8
         1        47        48        49        50        51        52        53
        54        55        56        57        58        59       776       778
       779       781       800       801       802       803       804       805
       806       807       808       809       810       811       824       825
       826       827       828       829       830       831       858       859
       860       861       862       863       864       865       866       867
       868       869       870       871       872       873       874       875
       876       877      1138      1139      1140      1141      1142      1143
      1144      1145      1146      1147      1148      1149      1150      1151
      1152      1153      1154      1155      1156      1157      1158      1159
      1160      1161      1162      1163      1164      1165      1166      1167
      1168      1169      1170      1171      1172      1173      1174      1175
      1176      1177      1178      1179      1180      1181      1182      1183
      1184      1185      1186      1187      1188      1189      1190      1191
      1192      1193      1194      1195      1196      1197      1198      1199
      1200      1201      1202      1203      1204      1205      1206      1207
      1208      1209      1210      1211      1212      1213      1214      1215
      1216      1217      1218      1219      1220      1221      1222      1223
      1224      1225      1226      1227      1228      1229      1230      1231
      1232      1233      2266      2268      2290      2291      2292      2293
$ ... 89 like lines cut
*CONTACT_TIED_SURFACE_TO_SURFACE_ID
$#     cid                                                                 title
         2                                                                      
$#    ssid      msid     sstyp     mstyp    sboxid    mboxid       spr       mpr
         1         2         0         0         0         0         0         0
$#      fs        fd        dc        vc       vdc    penchk        bt        dt
       0.0       0.0       0.0       0.0       0.0         0       0.01.00000E20
$#     sfs       sfm       sst       mst      sfst      sfmt       fsf       vsf
       1.0       1.0       0.0       0.0       1.0       1.0       1.0       1.0
*SET_SEGMENT_TITLE
upper segment
$#     sid       da1       da2       da3       da4    solver      
         1       0.0       0.0       0.0       0.0MECH
$#      n1        n2        n3        n4        a1        a2        a3        a4
      3496      3524      3503      3503       0.0       0.0       0.0       0.0
      3466      3470      3499      3545       0.0       0.0       0.0       0.0
      3470      3469      3534      3499       0.0       0.0       0.0       0.0
      3475      3467      3530      3544       0.0       0.0       0.0       0.0
      3474      3476      3540      3514       0.0       0.0       0.0       0.0
      3482      1335      3537      3529       0.0       0.0       0.0       0.0
      3480      3465      3477      3550       0.0       0.0       0.0       0.0
      3477      3466      3545      3550       0.0       0.0       0.0       0.0
      3481      3473      3495      3528       0.0       0.0       0.0       0.0
      3479      3481      3528      3537       0.0       0.0       0.0       0.0
      3467      3482      3529      3530       0.0       0.0       0.0       0.0
      3473      3483      3554      3495       0.0       0.0       0.0       0.0
      3483      3474      3514      3554       0.0       0.0       0.0       0.0
      3469      3484      3510      3534       0.0       0.0       0.0       0.0
      3484      3475      3544      3510       0.0       0.0       0.0       0.0
       866       779       840      1330       0.0       0.0       0.0       0.0
      3485      3471      3504      3515       0.0       0.0       0.0       0.0
      3476      3485      3515      3540       0.0       0.0       0.0       0.0
      3471      3486      3553      3504       0.0       0.0       0.0       0.0
       840       841      1354      1330       0.0       0.0       0.0       0.0
$ ... 104 like lines cut
*SET_SEGMENT_TITLE
lower seg
$#     sid       da1       da2       da3       da4    solver      
         2       0.0       0.0       0.0       0.0MECH
$#      n1        n2        n3        n4        a1        a2        a3        a4
      9405      9404      9455      9457       0.0       0.0       0.0       0.0
      9406      9405      9457      9459       0.0       0.0       0.0       0.0
      9407      9406      9459      9465       0.0       0.0       0.0       0.0
      9408      9407      9465      9472       0.0       0.0       0.0       0.0
      9409      9408      9472      9466       0.0       0.0       0.0       0.0
      9410      9409      9466      9517       0.0       0.0       0.0       0.0
      9457      9455      9522      9512       0.0       0.0       0.0       0.0
      9459      9457      9512      9499       0.0       0.0       0.0       0.0
      3512      9521      9490      9491       0.0       0.0       0.0       0.0
      9464      9452      9474      9479       0.0       0.0       0.0       0.0
      9465      9459      9499      9495       0.0       0.0       0.0       0.0
      9455      9471      9525      9522       0.0       0.0       0.0       0.0
      9471      9463      9487      9525       0.0       0.0       0.0       0.0
      9472      9465      9495      9500       0.0       0.0       0.0       0.0
      9466      9472      9500      9513       0.0       0.0       0.0       0.0
      9497      3556      9501      9531       0.0       0.0       0.0       0.0
      9461      9545      9476      9509       0.0       0.0       0.0       0.0
      9506      9475      9477      9488       0.0       0.0       0.0       0.0
      9475      9507      9481      9477       0.0       0.0       0.0       0.0
      9543      9464      9479      9525       0.0       0.0       0.0       0.0
$ ... 95 like lines cut
*PART
$#                                                                         title
Solid3
$#     pid     secid       mid     eosid      hgid      grav    adpopt      tmid
         3         2         1         0         0         0         0         0
*SECTION_SOLID_TITLE
solid_rod
$#   secid    elform       aet   
         2         2         0
*MAT_PIECEWISE_LINEAR_PLASTICITY_TITLE
MAT_plasti_lin
$#     mid        ro         e        pr      sigy      etan      fail      tdel
         17.83000E-6     207.0       0.3     0.235      50.01.00000E21       0.0
$#       c         p      lcss      lcsr        vp  
       0.0       0.0         0         0       0.0
$#    eps1      eps2      eps3      eps4      eps5      eps6      eps7      eps8
       0.0       0.0       0.0       0.0       0.0       0.0       0.0       0.0
$#     es1       es2       es3       es4       es5       es6       es7       es8
       0.0       0.0       0.0       0.0       0.0       0.0       0.0       0.0
*PART
$#                                                                         title
Solid4
$#     pid     secid       mid     eosid      hgid      grav    adpopt      tmid
         4         2         1         0         0         0         0         0
*PART
$#                                                                         title
Solid5
$#     pid     secid       mid     eosid      hgid      grav    adpopt      tmid
         5         2         1         0         0         0         0         0
*PART
$#                                                                         title
Solid6
$#     pid     secid       mid     eosid      hgid      grav    adpopt      tmid
         6         2         1         0         0         0         0         0
*PART
$#                                                                         title
Solid7
$#     pid     secid       mid     eosid      hgid      grav    adpopt      tmid
         7         2         1         0         0         0         0         0
*PART
$#                                                                         title
Solid8
$#     pid     secid       mid     eosid      hgid      grav    adpopt      tmid
         8         2         1         0         0         0         0         0
*SECTION_SHELL_TITLE
rod
$#   secid    elform      shrf       nip     propt   qr/irid     icomp     setyp
         1        15       1.0         2       3.0         0         0         1
$#      t1        t2        t3        t4      nloc     marea      idof    edgset
       0.1       0.1       0.1       0.1       1.0       0.0       0.0         0
*DEFINE_CURVE_TITLE
Curve_uy
$#    lcid      sidr       sfa       sfo      offa      offo    dattyp     lcint
         1         0       1.0       1.0       0.0       0.0         0         0
$#                a1                  o1  
                 0.0                 0.0
                50.0                 7.0
*SET_NODE_LIST_TITLE
NS_y+
$#     sid       da1       da2       da3       da4    solver      
         2       0.0       0.0       0.0       0.0MECH
$#    nid1      nid2      nid3      nid4      nid5      nid6      nid7      nid8
         1        47        48        49        50        51        52        53
        54        55        56        57        58        59      2266      2267
      2268      2272      2273      2274      2275      2276      2277      2278
      2279      2280      2281      2282      2283      2284      2285      2286
      2287      2288      2289      2290      2291      2292      2293      2294
      2295      2296      2297      2298      2299      2300      2301      2302
      2303      2304      2305      2306      2307      2308      2309      2310
      2311      2312      2313      3564      3565      3566      3567      3568
      3569      3570      3571      3572      3573      3574      3575      3576
      3577      3578      3579      3580      3581      3582      3583      3584
      3585      3586      3587      3588      3589      3590      3591      3592
      3593      3594      3595      3596      3597      3598      3599      3600
      3601      3602      3603      3604      3605      3606      3607      3608
      3609      3610      3611      3612      3613      3614      3615      3616
      3617      3618      3619      3620      3621      3622      3623      3624
      3625      3626      3627      3628      3629      3630      3631      3632
      3633      3634      3635      3636      3637      3638      3639      3640
      3641      3642      3643      3644      3645      3646      3647      3648
      3649      3650      3651      3652      3653      3654      3655      3656
      3657      3658      3659      3660      3661      3662      3663      3664
*ELEMENT_SOLID
$#   eid     pid      n1      n2      n3      n4      n5      n6      n7      n8
       1       4    8836    8825    8937    8901    8824    8824    8934    8934
       2       4    8901    8937    8709    8673    8934    8934    8706    8706
       3       4    8544    8550    8745    8572    8602    8839    8866    8727
       4       4    8602    8839    8866    8727    8547    8590    8638    8614
       5       4    8572    8745    8746    8573    8727    8866    8899    8728
       6       4    8727    8866    8899    8728    8614    8638    8671    8615
       7       4    8573    8746    8747    8574    8728    8899    8892    8729
       8       4    8728    8899    8892    8729    8615    8671    8664    8616
       9       4    8589    8748    8561    8546    8744    8885    8850    8632
      10       4    8744    8885    8850    8632    8631    8657    8603    8549
      11       4    8588    8749    8748    8589    8743    8864    8885    8744
      12       4    8743    8864    8885    8744    8630    8636    8657    8631
      13       4    8587    8750    8749    8588    8742    8865    8864    8743
      14       4    8742    8865    8864    8743    8629    8637    8636    8630
      15       4    8574    8747    8751    8575    8729    8892    8887    8730
      16       4    8729    8892    8887    8730    8616    8664    8659    8617
      17       4    8575    8751    8752    8576    8730    8887    8889    8731
      18       4    8730    8887    8889    8731    8617    8659    8661    8618
      19       4    8576    8752    8753    8577    8731    8889    8894    8732
      20       4    8731    8889    8894    8732    8618    8661    8666    8619
$ ... 6235 like lines cut
*NODE
$#   nid               x               y               z      tc      rc  
       1          6.4135           26.67             0.0       0       0
       2          6.4135            4.49             0.0       0       0
       3          6.4135        26.17711             0.0       0       0
       4          6.4135        25.68422             0.0       0       0
       5          6.4135        25.19133             0.0       0       0
       6          6.4135        24.69844             0.0       0       0
       7          6.4135        24.20555             0.0       0       0
       8          6.4135        23.71267             0.0       0       0
       9          6.4135        23.21978             0.0       0       0
      10          6.4135        22.72689             0.0       0       0
      11          6.4135          22.234             0.0       0       0
      12          6.4135        21.74111             0.0       0       0
      13          6.4135        21.24822             0.0       0       0
      14          6.4135        20.75533             0.0       0       0
      15          6.4135        20.26244             0.0       0       0
      16          6.4135        19.76956             0.0       0       0
      17          6.4135        19.27667             0.0       0       0
      18          6.4135        18.78378             0.0       0       0
      19          6.4135        18.29089             0.0       0       0
      20          6.4135          17.798             0.0       0       0
$ ... 8835 like lines cut
*SENSOR_DEFINE_NODE_SET
$#  sensid     node1     node2       vid         -     ctype    setopt      
         1         2         0Y                  0COORD     AVG
*SENSOR_SWITCH
$#  switid         -    sensid     logic     value   filtrid    timwin      
         1SENSOR             1LT               7.0         0       0.0
*TERMINATION_SENSOR
$#  sensor      
         1
*COMMENT  *PART
LSHELL1
         1         1         1         0         0         0         0         0
*END
